# Name file for MODFLOW-2005, generated by Flopy version 3.3.0.
#xll:0.0; yll:0.0; rotation:0.0; units:meters; lenuni:2; start_datetime:1-1-1970
LIST               2  model_run_bpa/idm_steady_no_swi_allwells_bpa.list
DIS               11  model_run_bpa/idm_steady_no_swi_allwells_bpa.dis
BAS6              13  model_run_bpa/idm_steady_no_swi_allwells_bpa.bas
RCH               19  model_run_bpa/idm_steady_no_swi_allwells_bpa.rch
LPF               15  model_run_bpa/idm_steady_no_swi_allwells_bpa.lpf
GHB               23  model_run_bpa/idm_steady_no_swi_allwells_bpa.ghb
WEL               20  model_run_bpa/idm_steady_no_swi_allwells_bpa.wel
MNW2              34  model_run_bpa/idm_steady_no_swi_allwells_bpa.mnw2
MNWI              58  model_run_bpa/idm_steady_no_swi_allwells_bpa.mnwi
OC                14  model_run_bpa/idm_steady_no_swi_allwells_bpa.oc
PCG               27  model_run_bpa/idm_steady_no_swi_allwells_bpa.pcg
DATA              36  model_run_bpa/idm_steady_no_swi_allwells_bpa.bynd
DATA              35  model_run_bpa/idm_steady_no_swi_allwells_bpa.0035.mnwobs
DATA(BINARY)      51  model_run_bpa/idm_steady_no_swi_allwells_bpa.hds REPLACE
