# LPF package for  MODFLOW-2005, generated by Flopy.
         0    -1E+30         0  
         1
         0
   1.000000E+00
         0
         0
INTERNAL               1 (483E15.6) -1 #hk layer 1                    
   1.000000E+30   1.000000E+30   1.000000E+30   1.000000E+30   1.000000E+30   1.000000E+30   1.000000E+30   1.000000E+30   1.000000E+30   1.000000E+30   1.000000E+30   1.000000E+30   1.000000E+30   1.000000E+30   1.000000E+30   1.000000E+30   1.000000E+30   1.000000E+30   1.000000E+30   1.000000E+30   1.000000E+30   1.000000E+30   1.000000E+30   1.000000E+30   1.000000E+30   1.000000E+30   1.000000E+30   1.000000E+30   1.000000E+30   1.000000E+30   1.000000E+30   1.000000E+30   1.000000E+30   1.000000E+30   1.000000E+30   1.000000E+30   1.000000E+30   1.000000E+30   1.000000E+30   1.000000E+30   1.000000E+30   1.000000E+30   1.000000E+30   1.000000E+30   1.000000E+30   1.000000E+30   1.000000E+30   1.000000E+30   1.000000E+30   1.000000E+30   1.000000E+30   1.000000E+30   1.000000E+30   1.000000E+30   1.000000E+30   1.000000E+30   1.000000E+30   1.000000E+30   1.000000E+30   1.000000E+30   1.000000E+30   1.000000E+30   1.000000E+30   1.000000E+30   1.000000E+30   1.000000E+30   1.000000E+30   1.000000E+30   1.000000E+30   1.000000E+30   1.000000E+30   1.000000E+30   1.000000E+30   1.000000E+30   1.000000E+30   1.000000E+30   1.000000E+30   1.000000E+30   1.000000E+30   1.000000E+30   1.000000E+30   1.000000E+30   1.000000E+30   1.000000E+30   1.000000E+30   1.000000E+30   1.000000E+30   1.000000E+30   1.000000E+30   1.000000E+30   1.000000E+30   1.000000E+30   1.000000E+30   1.000000E+30   1.000000E+30   1.000000E+30   1.000000E+30   1.000000E+30   1.000000E+30   1.000000E+30   1.000000E+30   1.000000E+30   1.000000E+30   1.000000E+30   1.000000E+30   1.000000E+30   1.000000E+30   1.000000E+30   1.000000E+30   1.000000E+30   1.000000E+30   1.000000E+30   1.000000E+30   1.000000E+30   1.000000E+30   1.000000E+30   1.000000E+30   1.000000E+30   1.000000E+30   1.000000E+30   1.000000E+30   1.000000E+30   1.000000E+30   1.000000E+30   1.000000E+30   1.000000E+30   1.000000E+30   1.000000E+30   1.000000E+30   1.000000E+30   1.000000E+30   1.000000E+30   1.000000E+30   1.000000E+30   1.000000E+30   1.000000E+30   1.000000E+30   1.000000E+30   1.000000E+30   1.000000E+30   1.000000E+30   1.000000E+30   1.000000E+30   1.000000E+30   1.000000E+30   1.000000E+30   1.000000E+30   1.000000E+30   1.000000E+30   1.000000E+30   1.000000E+30   1.000000E+30   1.000000E+30   1.000000E+30   1.000000E+30   1.000000E+30   1.000000E+30   1.000000E+30   1.000000E+30   1.000000E+30   1.000000E+30   1.000000E+30   1.000000E+30   1.000000E+30   1.000000E+30   1.000000E+30   1.000000E+30   1.000000E+30   1.000000E+30   1.000000E+30   1.000000E+30   1.000000E+30   1.000000E+30   1.000000E+30   1.000000E+30   1.000000E+30   1.000000E+30   1.000000E+30   1.000000E+30   1.000000E+30   1.000000E+30   1.000000E+30   1.000000E+30   1.000000E+30   1.000000E+30   1.000000E+30   1.000000E+30   1.000000E+30   1.000000E+30   1.000000E+30   1.000000E+30   1.000000E+30   1.000000E+30   1.000000E+30   1.000000E+30   1.000000E+30   1.000000E+30   1.000000E+30   1.000000E+30   1.000000E+30   1.000000E+30   1.000000E+30   1.000000E+30   1.000000E+30   1.000000E+30   1.000000E+30   1.000000E+30   1.000000E+30   1.000000E+30   1.000000E+30   1.000000E+30   1.000000E+30   1.000000E+30   1.000000E+30   1.000000E+30   1.000000E+30   1.000000E+30   1.000000E+30   1.000000E+30   1.000000E+30   1.000000E+30   1.000000E+30   1.000000E+30   1.000000E+30   1.000000E+30   1.000000E+30   1.000000E+30   1.000000E+30   1.000000E+30   1.000000E+30   1.000000E+30   1.000000E+30   1.000000E+30   1.000000E+30   1.000000E+30   1.000000E+30   1.000000E+30   1.000000E+30   1.000000E+30   1.000000E+30   1.000000E+30   1.000000E+30   1.000000E+30   1.000000E+30   1.000000E+30   1.000000E+30   1.000000E+30   1.000000E+30   1.000000E+30   1.000000E+30   1.000000E+30   1.000000E+30   1.000000E+30   1.000000E+30   1.000000E+30   1.000000E+30   1.000000E+30   1.000000E+30   1.000000E+30   1.000000E+30   1.000000E+30   1.000000E+30   1.000000E+30   4.000000E-05   4.000000E-05   4.000000E-05   4.000000E-05   4.000000E-05   4.000000E-05   4.000000E-05   4.000000E-05   4.000000E-05   4.000000E-05   4.000000E-05   4.000000E-05   4.000000E-05   4.000000E-05   4.000000E-05   4.000000E-05   4.000000E-05   4.000000E-05   4.000000E-05   4.000000E-05   4.000000E-05   4.000000E-05   4.000000E-05   4.000000E-05   4.000000E-05   4.000000E-05   4.000000E-05   4.000000E-05   4.000000E-05   4.000000E-05   4.000000E-05   4.000000E-05   4.000000E-05   4.000000E-05   4.000000E-05   4.000000E-05   4.000000E-05   4.000000E-05   4.000000E-05   4.000000E-05   4.000000E-05   4.000000E-05   4.000000E-05   4.000000E-05   4.000000E-05   4.000000E-05   4.000000E-05   4.000000E-05   4.000000E-05   4.000000E-05   4.000000E-05   4.000000E-05   4.000000E-05   4.000000E-05   4.000000E-05   4.000000E-05   4.000000E-05   4.000000E-05   4.000000E-05   4.000000E-05   4.000000E-05   4.000000E-05   4.000000E-05   4.000000E-05   4.000000E-05   4.000000E-05   4.000000E-05   4.000000E-05   4.000000E-05   4.000000E-05   4.000000E-05   4.000000E-05   4.000000E-05   4.000000E-05   4.000000E-05   4.000000E-05   4.000001E-05   4.000000E-05   4.000000E-05   4.000000E-05   4.000000E-05   4.000000E-05   4.000000E-05   4.000000E-05   4.000000E-05   4.000000E-05   4.000000E-05   4.000000E-05   4.000000E-05   4.000000E-05   4.000000E-05   4.000000E-05   2.055624E-04   2.046776E-04   2.041306E-04   2.039708E-04   2.048076E-04   2.058863E-04   2.058863E-04   2.058863E-04   2.058863E-04   2.058863E-04   2.055375E-04   2.047841E-04   2.047841E-04   2.047841E-04   2.047841E-04   2.047841E-04   2.046241E-04   2.044366E-04   2.047841E-04   2.047717E-04   2.047572E-04   2.045995E-04   2.041995E-04   2.043832E-04   2.046118E-04   2.044099E-04   2.047841E-04   2.044399E-04   2.037207E-04   2.040784E-04   2.044254E-04   2.035771E-04   2.033677E-04   2.038402E-04   2.040795E-04   2.038689E-04   2.036610E-04   2.027649E-04   2.028325E-04   2.026198E-04   2.036964E-04   2.036842E-04   2.033425E-04   2.029858E-04   2.033567E-04   2.022997E-04   2.016012E-04   2.012701E-04   2.002165E-04   1.991746E-04   1.991550E-04   2.015691E-04   2.038933E-04   2.042384E-04   2.040795E-04   2.038933E-04   2.040795E-04   2.033709E-04   2.025968E-04   2.029596E-04   2.035385E-04   2.035110E-04   2.042118E-04   2.043976E-04   2.047572E-04   2.047841E-04   2.047841E-04   2.047841E-04   2.047841E-04   2.047841E-04   2.047717E-04   2.044377E-04   2.039198E-04   2.040673E-04   2.035264E-04   2.031579E-04   2.028325E-04   2.021175E-04   2.020915E-04   2.022585E-04   2.024552E-04   2.019248E-04   2.017176E-04   2.023879E-04   2.034582E-04   2.043832E-04   2.047841E-04   2.047841E-04   2.047841E-04   2.052658E-04   4.000000E-05   4.000000E-05   4.000000E-05   4.000000E-05   4.000000E-05   4.000000E-05   4.000000E-05   4.000000E-05   4.000000E-05   4.000000E-05   4.000000E-05   4.000000E-05   4.000000E-05   4.000000E-05   4.000000E-05   4.000000E-05   4.000000E-05   4.000000E-05   4.000000E-05   4.000000E-05   4.000000E-05   4.000000E-05   4.000000E-05   4.000000E-05   4.000000E-05   4.000000E-05   4.000000E-05   4.000000E-05   4.000000E-05   4.000000E-05   4.000000E-05   4.000000E-05   4.000000E-05   4.000000E-05   4.000000E-05   4.000000E-05   4.000000E-05   4.000000E-05
   1.000000E+30   1.000000E+30   1.000000E+30   1.000000E+30   1.000000E+30   1.000000E+30   1.000000E+30   1.000000E+30   1.000000E+30   1.000000E+30   1.000000E+30   1.000000E+30   1.000000E+30   1.000000E+30   1.000000E+30   1.000000E+30   1.000000E+30   1.000000E+30   1.000000E+30   1.000000E+30   1.000000E+30   1.000000E+30   1.000000E+30   1.000000E+30   1.000000E+30   1.000000E+30   1.000000E+30   1.000000E+30   1.000000E+30   1.000000E+30   1.000000E+30   1.000000E+30   1.000000E+30   1.000000E+30   1.000000E+30   1.000000E+30   1.000000E+30   1.000000E+30   1.000000E+30   1.000000E+30   1.000000E+30   1.000000E+30   1.000000E+30   1.000000E+30   1.000000E+30   1.000000E+30   1.000000E+30   1.000000E+30   1.000000E+30   1.000000E+30   1.000000E+30   1.000000E+30   1.000000E+30   1.000000E+30   1.000000E+30   1.000000E+30   1.000000E+30   1.000000E+30   1.000000E+30   1.000000E+30   1.000000E+30   1.000000E+30   1.000000E+30   1.000000E+30   1.000000E+30   1.000000E+30   1.000000E+30   1.000000E+30   1.000000E+30   1.000000E+30   1.000000E+30   1.000000E+30   1.000000E+30   1.000000E+30   1.000000E+30   1.000000E+30   1.000000E+30   1.000000E+30   1.000000E+30   1.000000E+30   1.000000E+30   1.000000E+30   1.000000E+30   1.000000E+30   1.000000E+30   1.000000E+30   1.000000E+30   1.000000E+30   1.000000E+30   1.000000E+30   1.000000E+30   1.000000E+30   1.000000E+30   1.000000E+30   1.000000E+30   1.000000E+30   1.000000E+30   1.000000E+30   1.000000E+30   1.000000E+30   1.000000E+30   1.000000E+30   1.000000E+30   1.000000E+30   1.000000E+30   1.000000E+30   1.000000E+30   1.000000E+30   1.000000E+30   1.000000E+30   1.000000E+30   1.000000E+30   1.000000E+30   1.000000E+30   1.000000E+30   1.000000E+30   1.000000E+30   1.000000E+30   1.000000E+30   1.000000E+30   1.000000E+30   1.000000E+30   1.000000E+30   1.000000E+30   1.000000E+30   1.000000E+30   1.000000E+30   1.000000E+30   1.000000E+30   1.000000E+30   1.000000E+30   1.000000E+30   1.000000E+30   1.000000E+30   1.000000E+30   1.000000E+30   1.000000E+30   1.000000E+30   1.000000E+30   1.000000E+30   1.000000E+30   1.000000E+30   1.000000E+30   1.000000E+30   1.000000E+30   1.000000E+30   1.000000E+30   1.000000E+30   1.000000E+30   1.000000E+30   1.000000E+30   1.000000E+30   1.000000E+30   1.000000E+30   1.000000E+30   1.000000E+30   1.000000E+30   1.000000E+30   1.000000E+30   1.000000E+30   1.000000E+30   1.000000E+30   1.000000E+30   1.000000E+30   1.000000E+30   1.000000E+30   1.000000E+30   1.000000E+30   1.000000E+30   1.000000E+30   1.000000E+30   1.000000E+30   1.000000E+30   1.000000E+30   1.000000E+30   1.000000E+30   1.000000E+30   1.000000E+30   1.000000E+30   1.000000E+30   1.000000E+30   1.000000E+30   1.000000E+30   1.000000E+30   1.000000E+30   1.000000E+30   1.000000E+30   1.000000E+30   1.000000E+30   1.000000E+30   1.000000E+30   1.000000E+30   1.000000E+30   1.000000E+30   1.000000E+30   1.000000E+30   1.000000E+30   1.000000E+30   1.000000E+30   1.000000E+30   1.000000E+30   1.000000E+30   1.000000E+30   1.000000E+30   1.000000E+30   1.000000E+30   1.000000E+30   1.000000E+30   1.000000E+30   1.000000E+30   1.000000E+30   1.000000E+30   1.000000E+30   1.000000E+30   1.000000E+30   1.000000E+30   1.000000E+30   1.000000E+30   1.000000E+30   1.000000E+30   1.000000E+30   1.000000E+30   1.000000E+30   1.000000E+30   1.000000E+30   1.000000E+30   1.000000E+30   1.000000E+30   1.000000E+30   1.000000E+30   1.000000E+30   1.000000E+30   1.000000E+30   1.000000E+30   1.000000E+30   1.000000E+30   1.000000E+30   1.000000E+30   1.000000E+30   1.000000E+30   1.000000E+30   1.000000E+30   1.000000E+30   1.000000E+30   1.000000E+30   1.000000E+30   1.000000E+30   1.000000E+30   1.000000E+30   1.000000E+30   1.000000E+30   1.000000E+30   1.000000E+30   1.000000E+30   1.000000E+30   1.000000E+30   1.000000E+30   1.000000E+30   1.000000E+30   1.000000E+30   1.000000E+30   1.000000E+30   4.000000E-05   4.000000E-05   4.000000E-05   4.000000E-05   4.000000E-05   4.000000E-05   4.000000E-05   4.000000E-05   4.000000E-05   4.000000E-05   4.000000E-05   4.000000E-05   4.000000E-05   4.000000E-05   4.000000E-05   4.000000E-05   4.000000E-05   4.000000E-05   4.000000E-05   4.000000E-05   4.000000E-05   4.000000E-05   4.000000E-05   4.000000E-05   4.000000E-05   4.000000E-05   4.000000E-05   4.000000E-05   4.000000E-05   4.000000E-05   4.000000E-05   4.000000E-05   4.000000E-05   4.000000E-05   4.000000E-05   4.000000E-05   4.000000E-05   4.000000E-05   4.000000E-05   4.000000E-05   4.000000E-05   4.000000E-05   4.000000E-05   4.000000E-05   4.000000E-05   4.000000E-05   4.000000E-05   4.000000E-05   4.000000E-05   4.000000E-05   4.000000E-05   4.000000E-05   4.000000E-05   4.000000E-05   4.000000E-05   4.000000E-05   4.000000E-05   4.000000E-05   4.000000E-05   4.000000E-05   4.000000E-05   4.000000E-05   4.000000E-05   4.000000E-05   4.000000E-05   4.000000E-05   4.000000E-05   4.000000E-05   4.000000E-05   4.000000E-05   4.000000E-05   4.000000E-05   4.000000E-05   4.000000E-05   4.000000E-05   4.000000E-05   4.000000E-05   4.000000E-05   4.000000E-05   4.000000E-05   4.000000E-05   4.000000E-05   4.000000E-05   4.000000E-05   4.000000E-05   4.000000E-05   4.000000E-05   4.000000E-05   4.000000E-05   4.000000E-05   4.000000E-05   4.000000E-05   4.000000E-05   2.052149E-04   2.031314E-04   2.023595E-04   2.040252E-04   2.051028E-04   2.058863E-04   2.058863E-04   2.058863E-04   2.058863E-04   2.055624E-04   2.048377E-04   2.047841E-04   2.047841E-04   2.047841E-04   2.047841E-04   2.047841E-04   2.046118E-04   2.044099E-04   2.047841E-04   2.047841E-04   2.046241E-04   2.039474E-04   2.035496E-04   2.042507E-04   2.044243E-04   2.047572E-04   2.047841E-04   2.042806E-04   2.035110E-04   2.042240E-04   2.040939E-04   2.035264E-04   2.033271E-04   2.037086E-04   2.037228E-04   2.033931E-04   2.027014E-04   2.027911E-04   2.029769E-04   2.030900E-04   2.038822E-04   2.031963E-04   2.033293E-04   2.034857E-04   2.030152E-04   2.022877E-04   2.011031E-04   1.997859E-04   1.998103E-04   2.009299E-04   2.006936E-04   2.030113E-04   2.042118E-04   2.042384E-04   2.042261E-04   2.042118E-04   2.040673E-04   2.035142E-04   2.031195E-04   2.031437E-04   2.033414E-04   2.038402E-04   2.043976E-04   2.047572E-04   2.047841E-04   2.047841E-04   2.047841E-04   2.047841E-04   2.047841E-04   2.047841E-04   2.047841E-04   2.045995E-04   2.040529E-04   2.035649E-04   2.030273E-04   2.025052E-04   2.021434E-04   2.020915E-04   2.020915E-04   2.021034E-04   2.019626E-04   2.017434E-04   2.022206E-04   2.029213E-04   2.038402E-04   2.044099E-04   2.047841E-04   2.047841E-04   2.049443E-04   2.056542E-04   4.000000E-05   4.000000E-05   4.000000E-05   4.000000E-05   4.000000E-05   4.000000E-05   4.000000E-05   4.000000E-05   4.000000E-05   4.000000E-05   4.000000E-05   4.000000E-05   4.000000E-05   4.000000E-05   4.000000E-05   4.000000E-05   4.000000E-05   4.000000E-05   4.000000E-05   4.000000E-05   4.000000E-05   4.000000E-05   4.000000E-05   4.000000E-05   4.000000E-05   4.000000E-05   4.000000E-05   4.000000E-05   4.000000E-05   4.000000E-05   4.000000E-05   4.000000E-05   4.000000E-05   4.000000E-05   4.000000E-05   4.000000E-05   4.000000E-05   4.000000E-05
   1.000000E+30   1.000000E+30   1.000000E+30   1.000000E+30   1.000000E+30   1.000000E+30   1.000000E+30   1.000000E+30   1.000000E+30   1.000000E+30   1.000000E+30   1.000000E+30   1.000000E+30   1.000000E+30   1.000000E+30   1.000000E+30   1.000000E+30   1.000000E+30   1.000000E+30   1.000000E+30   1.000000E+30   1.000000E+30   1.000000E+30   1.000000E+30   1.000000E+30   1.000000E+30   1.000000E+30   1.000000E+30   1.000000E+30   1.000000E+30   1.000000E+30   1.000000E+30   1.000000E+30   1.000000E+30   1.000000E+30   1.000000E+30   1.000000E+30   1.000000E+30   1.000000E+30   1.000000E+30   1.000000E+30   1.000000E+30   1.000000E+30   1.000000E+30   1.000000E+30   1.000000E+30   1.000000E+30   1.000000E+30   1.000000E+30   1.000000E+30   1.000000E+30   1.000000E+30   1.000000E+30   1.000000E+30   1.000000E+30   1.000000E+30   1.000000E+30   1.000000E+30   1.000000E+30   1.000000E+30   1.000000E+30   1.000000E+30   1.000000E+30   1.000000E+30   1.000000E+30   1.000000E+30   1.000000E+30   1.000000E+30   1.000000E+30   1.000000E+30   1.000000E+30   1.000000E+30   1.000000E+30   1.000000E+30   1.000000E+30   1.000000E+30   1.000000E+30   1.000000E+30   1.000000E+30   1.000000E+30   1.000000E+30   1.000000E+30   1.000000E+30   1.000000E+30   1.000000E+30   1.000000E+30   1.000000E+30   1.000000E+30   1.000000E+30   1.000000E+30   1.000000E+30   1.000000E+30   1.000000E+30   1.000000E+30   1.000000E+30   1.000000E+30   1.000000E+30   1.000000E+30   1.000000E+30   1.000000E+30   1.000000E+30   1.000000E+30   1.000000E+30   1.000000E+30   1.000000E+30   1.000000E+30   1.000000E+30   1.000000E+30   1.000000E+30   1.000000E+30   1.000000E+30   1.000000E+30   1.000000E+30   1.000000E+30   1.000000E+30   1.000000E+30   1.000000E+30   1.000000E+30   1.000000E+30   1.000000E+30   1.000000E+30   1.000000E+30   1.000000E+30   1.000000E+30   1.000000E+30   1.000000E+30   1.000000E+30   1.000000E+30   1.000000E+30   1.000000E+30   1.000000E+30   1.000000E+30   1.000000E+30   1.000000E+30   1.000000E+30   1.000000E+30   1.000000E+30   1.000000E+30   1.000000E+30   1.000000E+30   1.000000E+30   1.000000E+30   1.000000E+30   1.000000E+30   1.000000E+30   1.000000E+30   1.000000E+30   1.000000E+30   1.000000E+30   1.000000E+30   1.000000E+30   1.000000E+30   1.000000E+30   1.000000E+30   1.000000E+30   1.000000E+30   1.000000E+30   1.000000E+30   1.000000E+30   1.000000E+30   1.000000E+30   1.000000E+30   1.000000E+30   1.000000E+30   1.000000E+30   1.000000E+30   1.000000E+30   1.000000E+30   1.000000E+30   1.000000E+30   1.000000E+30   1.000000E+30   1.000000E+30   1.000000E+30   1.000000E+30   1.000000E+30   1.000000E+30   1.000000E+30   1.000000E+30   1.000000E+30   1.000000E+30   1.000000E+30   1.000000E+30   1.000000E+30   1.000000E+30   1.000000E+30   1.000000E+30   1.000000E+30   1.000000E+30   1.000000E+30   1.000000E+30   1.000000E+30   1.000000E+30   1.000000E+30   1.000000E+30   1.000000E+30   1.000000E+30   1.000000E+30   1.000000E+30   1.000000E+30   1.000000E+30   1.000000E+30   1.000000E+30   1.000000E+30   1.000000E+30   1.000000E+30   1.000000E+30   1.000000E+30   1.000000E+30   1.000000E+30   1.000000E+30   1.000000E+30   1.000000E+30   1.000000E+30   1.000000E+30   1.000000E+30   1.000000E+30   1.000000E+30   1.000000E+30   1.000000E+30   1.000000E+30   1.000000E+30   1.000000E+30   1.000000E+30   1.000000E+30   1.000000E+30   1.000000E+30   1.000000E+30   1.000000E+30   1.000000E+30   1.000000E+30   1.000000E+30   1.000000E+30   1.000000E+30   1.000000E+30   1.000000E+30   1.000000E+30   1.000000E+30   1.000000E+30   1.000000E+30   1.000000E+30   1.000000E+30   1.000000E+30   1.000000E+30   1.000000E+30   1.000000E+30   1.000000E+30   1.000000E+30   1.000000E+30   1.000000E+30   1.000000E+30   1.000000E+30   1.000000E+30   1.000000E+30   1.000000E+30   1.000000E+30   1.000000E+30   1.000000E+30   1.000000E+30   1.000000E+30   1.000000E+30   1.000000E+30   4.000000E-05   4.000000E-05   4.000000E-05   4.000000E-05   4.000000E-05   4.000000E-05   4.000000E-05   4.000000E-05   4.000000E-05   4.000000E-05   4.000000E-05   4.000000E-05   4.000000E-05   4.000000E-05   4.000000E-05   4.000000E-05   4.000000E-05   4.000000E-05   4.000000E-05   4.000000E-05   4.000000E-05   4.000000E-05   4.000000E-05   4.000000E-05   4.000000E-05   4.000000E-05   4.000000E-05   4.000000E-05   4.000000E-05   4.000000E-05   4.000000E-05   4.000000E-05   4.000000E-05   4.000000E-05   4.000000E-05   4.000000E-05   4.000000E-05   4.000000E-05   4.000000E-05   4.000000E-05   4.000000E-05   4.000000E-05   4.000000E-05   4.000000E-05   4.000000E-05   4.000000E-05   4.000000E-05   4.000000E-05   4.000000E-05   4.000000E-05   4.000000E-05   4.000000E-05   4.000000E-05   4.000000E-05   4.000000E-05   4.000000E-05   4.000000E-05   4.000000E-05   4.000000E-05   4.000000E-05   4.000000E-05   4.000000E-05   4.000000E-05   4.000000E-05   4.000000E-05   4.000000E-05   4.000000E-05   4.000000E-05   4.000000E-05   4.000000E-05   4.000000E-05   4.000000E-05   4.000000E-05   4.000000E-05   4.000001E-05   4.000000E-05   4.000000E-05   4.000000E-05   4.000000E-05   4.000000E-05   4.000000E-05   4.000000E-05   4.000000E-05   4.000000E-05   4.000000E-05   4.000000E-05   4.000000E-05   4.000000E-05   4.000000E-05   4.000000E-05   4.000000E-05   4.000000E-05   4.000000E-05   2.053512E-04   2.044689E-04   2.049468E-04   2.045706E-04   2.041428E-04   2.044868E-04   2.058863E-04   2.058863E-04   2.058863E-04   2.055375E-04   2.047841E-04   2.046241E-04   2.044366E-04   2.046241E-04   2.044366E-04   2.047841E-04   2.046118E-04   2.042507E-04   2.044366E-04   2.047841E-04   2.047717E-04   2.045604E-04   2.041851E-04   2.042384E-04   2.042507E-04   2.041183E-04   2.036157E-04   2.032368E-04   2.036545E-04   2.047449E-04   2.042539E-04   2.031842E-04   2.031700E-04   2.033535E-04   2.035385E-04   2.031721E-04   2.031195E-04   2.029748E-04   2.026491E-04   2.029716E-04   2.037107E-04   2.038158E-04   2.040141E-04   2.035264E-04   2.026763E-04   2.013076E-04   2.001023E-04   1.993231E-04   2.008951E-04   2.031634E-04   2.036448E-04   2.041585E-04   2.042384E-04   2.042384E-04   2.042384E-04   2.042384E-04   2.039087E-04   2.030273E-04   2.026611E-04   2.028173E-04   2.034846E-04   2.042118E-04   2.044099E-04   2.047841E-04   2.047841E-04   2.047841E-04   2.047841E-04   2.047841E-04   2.047841E-04   2.047841E-04   2.047841E-04   2.046118E-04   2.040673E-04   2.033688E-04   2.028052E-04   2.027943E-04   2.020915E-04   2.020915E-04   2.020915E-04   2.020915E-04   2.020796E-04   2.022206E-04   2.029092E-04   2.039599E-04   2.047181E-04   2.047572E-04   2.047841E-04   2.047841E-04   2.052782E-04   2.063882E-04   4.000000E-05   4.000000E-05   4.000000E-05   4.000000E-05   4.000000E-05   4.000000E-05   4.000000E-05   4.000000E-05   4.000000E-05   4.000000E-05   4.000000E-05   4.000000E-05   4.000000E-05   4.000000E-05   4.000000E-05   4.000000E-05   4.000000E-05   4.000000E-05   4.000000E-05   4.000000E-05   4.000000E-05   4.000000E-05   4.000000E-05   4.000000E-05   4.000000E-05   4.000000E-05   4.000000E-05   4.000000E-05   4.000000E-05   4.000000E-05   4.000000E-05   4.000000E-05   4.000000E-05   4.000000E-05   4.000000E-05   4.000000E-05   4.000000E-05   4.000000E-05
   1.000000E+30   1.000000E+30   1.000000E+30   1.000000E+30   1.000000E+30   1.000000E+30   1.000000E+30   1.000000E+30   1.000000E+30   1.000000E+30   1.000000E+30   1.000000E+30   1.000000E+30   1.000000E+30   1.000000E+30   1.000000E+30   1.000000E+30   1.000000E+30   1.000000E+30   1.000000E+30   1.000000E+30   1.000000E+30   1.000000E+30   1.000000E+30   1.000000E+30   1.000000E+30   1.000000E+30   1.000000E+30   1.000000E+30   1.000000E+30   1.000000E+30   1.000000E+30   1.000000E+30   1.000000E+30   1.000000E+30   1.000000E+30   1.000000E+30   1.000000E+30   1.000000E+30   1.000000E+30   1.000000E+30   1.000000E+30   1.000000E+30   1.000000E+30   1.000000E+30   1.000000E+30   1.000000E+30   1.000000E+30   1.000000E+30   1.000000E+30   1.000000E+30   1.000000E+30   1.000000E+30   1.000000E+30   1.000000E+30   1.000000E+30   1.000000E+30   1.000000E+30   1.000000E+30   1.000000E+30   1.000000E+30   1.000000E+30   1.000000E+30   1.000000E+30   1.000000E+30   1.000000E+30   1.000000E+30   1.000000E+30   1.000000E+30   1.000000E+30   1.000000E+30   1.000000E+30   1.000000E+30   1.000000E+30   1.000000E+30   1.000000E+30   1.000000E+30   1.000000E+30   1.000000E+30   1.000000E+30   1.000000E+30   1.000000E+30   1.000000E+30   1.000000E+30   1.000000E+30   1.000000E+30   1.000000E+30   1.000000E+30   1.000000E+30   1.000000E+30   1.000000E+30   1.000000E+30   1.000000E+30   1.000000E+30   1.000000E+30   1.000000E+30   1.000000E+30   1.000000E+30   1.000000E+30   1.000000E+30   1.000000E+30   1.000000E+30   1.000000E+30   1.000000E+30   1.000000E+30   1.000000E+30   1.000000E+30   1.000000E+30   1.000000E+30   1.000000E+30   1.000000E+30   1.000000E+30   1.000000E+30   1.000000E+30   1.000000E+30   1.000000E+30   1.000000E+30   1.000000E+30   1.000000E+30   1.000000E+30   1.000000E+30   1.000000E+30   1.000000E+30   1.000000E+30   1.000000E+30   1.000000E+30   1.000000E+30   1.000000E+30   1.000000E+30   1.000000E+30   1.000000E+30   1.000000E+30   1.000000E+30   1.000000E+30   1.000000E+30   1.000000E+30   1.000000E+30   1.000000E+30   1.000000E+30   1.000000E+30   1.000000E+30   1.000000E+30   1.000000E+30   1.000000E+30   1.000000E+30   1.000000E+30   1.000000E+30   1.000000E+30   1.000000E+30   1.000000E+30   1.000000E+30   1.000000E+30   1.000000E+30   1.000000E+30   1.000000E+30   1.000000E+30   1.000000E+30   1.000000E+30   1.000000E+30   1.000000E+30   1.000000E+30   1.000000E+30   1.000000E+30   1.000000E+30   1.000000E+30   1.000000E+30   1.000000E+30   1.000000E+30   1.000000E+30   1.000000E+30   1.000000E+30   1.000000E+30   1.000000E+30   1.000000E+30   1.000000E+30   1.000000E+30   1.000000E+30   1.000000E+30   1.000000E+30   1.000000E+30   1.000000E+30   1.000000E+30   1.000000E+30   1.000000E+30   1.000000E+30   1.000000E+30   1.000000E+30   1.000000E+30   1.000000E+30   1.000000E+30   1.000000E+30   1.000000E+30   1.000000E+30   1.000000E+30   1.000000E+30   1.000000E+30   1.000000E+30   1.000000E+30   1.000000E+30   1.000000E+30   1.000000E+30   1.000000E+30   1.000000E+30   1.000000E+30   1.000000E+30   1.000000E+30   1.000000E+30   1.000000E+30   1.000000E+30   1.000000E+30   1.000000E+30   1.000000E+30   1.000000E+30   1.000000E+30   1.000000E+30   1.000000E+30   1.000000E+30   1.000000E+30   1.000000E+30   1.000000E+30   1.000000E+30   1.000000E+30   1.000000E+30   1.000000E+30   1.000000E+30   1.000000E+30   1.000000E+30   1.000000E+30   1.000000E+30   1.000000E+30   1.000000E+30   1.000000E+30   1.000000E+30   1.000000E+30   1.000000E+30   1.000000E+30   1.000000E+30   1.000000E+30   1.000000E+30   1.000000E+30   1.000000E+30   1.000000E+30   1.000000E+30   1.000000E+30   1.000000E+30   1.000000E+30   1.000000E+30   1.000000E+30   1.000000E+30   1.000000E+30   1.000000E+30   1.000000E+30   1.000000E+30   1.000000E+30   1.000000E+30   1.000000E+30   1.000000E+30   1.000000E+30   1.000000E+30   1.000000E+30   1.000000E+30   4.000000E-05   4.000000E-05   4.000000E-05   4.000000E-05   4.000000E-05   4.000000E-05   4.000000E-05   4.000000E-05   4.000000E-05   4.000000E-05   4.000000E-05   4.000000E-05   4.000000E-05   4.000000E-05   4.000000E-05   4.000000E-05   4.000000E-05   4.000000E-05   4.000000E-05   4.000000E-05   4.000000E-05   4.000000E-05   4.000000E-05   4.000000E-05   4.000001E-05   4.000000E-05   4.000000E-05   4.000000E-05   4.000000E-05   4.000000E-05   4.000000E-05   4.000000E-05   4.000000E-05   4.000000E-05   4.000000E-05   4.000000E-05   4.000000E-05   4.000000E-05   4.000000E-05   4.000000E-05   4.000000E-05   4.000000E-05   4.000000E-05   4.000000E-05   4.000000E-05   4.000000E-05   4.000000E-05   4.000000E-05   4.000000E-05   4.000000E-05   4.000000E-05   4.000000E-05   4.000000E-05   4.000000E-05   4.000000E-05   4.000000E-05   4.000000E-05   4.000000E-05   4.000000E-05   4.000000E-05   4.000000E-05   4.000000E-05   4.000000E-05   4.000000E-05   4.000000E-05   4.000000E-05   4.000000E-05   4.000000E-05   4.000000E-05   4.000000E-05   4.000000E-05   4.000000E-05   4.000000E-05   4.000000E-05   4.000000E-05   4.000000E-05   4.000000E-05   4.000000E-05   4.000000E-05   4.000000E-05   4.000000E-05   4.000000E-05   4.000000E-05   4.000000E-05   4.000000E-05   4.000000E-05   4.000000E-05   4.000000E-05   4.000000E-05   4.000000E-05   4.000000E-05   4.000000E-05   4.000000E-05   4.000000E-05   2.055250E-04   2.046096E-04   2.041449E-04   2.037615E-04   2.040396E-04   2.047551E-04   2.051836E-04   2.057242E-04   2.052116E-04   2.048377E-04   2.047841E-04   2.047717E-04   2.047572E-04   2.047717E-04   2.045973E-04   2.044366E-04   2.046118E-04   2.043976E-04   2.047572E-04   2.046241E-04   2.044366E-04   2.047717E-04   2.047449E-04   2.047449E-04   2.047449E-04   2.047326E-04   2.045337E-04   2.041606E-04   2.043565E-04   2.047841E-04   2.044276E-04   2.033425E-04   2.028173E-04   2.031700E-04   2.031842E-04   2.031579E-04   2.031579E-04   2.031458E-04   2.034339E-04   2.039875E-04   2.035385E-04   2.032084E-04   2.032226E-04   2.030273E-04   2.021585E-04   2.007475E-04   1.997007E-04   1.995959E-04   2.018031E-04   2.038280E-04   2.042118E-04   2.042384E-04   2.040795E-04   2.038933E-04   2.042384E-04   2.042384E-04   2.042139E-04   2.035153E-04   2.024400E-04   2.032887E-04   2.038402E-04   2.043976E-04   2.047572E-04   2.047841E-04   2.047841E-04   2.047841E-04   2.047841E-04   2.047841E-04   2.047841E-04   2.047841E-04   2.046241E-04   2.041061E-04   2.034073E-04   2.025193E-04   2.024520E-04   2.028204E-04   2.022466E-04   2.024291E-04   2.019367E-04   2.017553E-04   2.020915E-04   2.022585E-04   2.031163E-04   2.043832E-04   2.047841E-04   2.047841E-04   2.047841E-04   2.052658E-04   2.063609E-04   4.000000E-05   4.000000E-05   4.000000E-05   4.000000E-05   4.000000E-05   4.000000E-05   4.000000E-05   4.000000E-05   4.000000E-05   4.000000E-05   4.000000E-05   4.000000E-05   4.000000E-05   4.000000E-05   4.000000E-05   4.000000E-05   4.000000E-05   4.000000E-05   4.000000E-05   4.000000E-05   4.000000E-05   4.000000E-05   4.000000E-05   4.000000E-05   4.000000E-05   4.000000E-05   4.000000E-05   4.000000E-05   4.000000E-05   4.000000E-05   4.000000E-05   4.000000E-05   4.000000E-05   4.000000E-05   4.000000E-05   4.000000E-05   4.000000E-05   4.000000E-05   4.000000E-05