# Name file for MODFLOW-2005, generated by Flopy version 3.3.0.
#xll:0.0; yll:0.0; rotation:0.0; units:meters; lenuni:2; start_datetime:1-1-1970
LIST               2  idm_steady_no_swi_allwells_priorcalib.list
DIS               11  idm_steady_no_swi_allwells_priorcalib.dis
BAS6              13  idm_steady_no_swi_allwells_priorcalib.bas
RCH               19  idm_steady_no_swi_allwells_priorcalib.rch
LPF               15  idm_steady_no_swi_allwells_priorcalib.lpf
GHB               23  idm_steady_no_swi_allwells_priorcalib.ghb
WEL               20  idm_steady_no_swi_allwells_priorcalib.wel
MNW2              34  idm_steady_no_swi_allwells_priorcalib.mnw2
MNWI              58  idm_steady_no_swi_allwells_priorcalib.mnwi
OC                14  idm_steady_no_swi_allwells_priorcalib.oc
PCG               27  idm_steady_no_swi_allwells_priorcalib.pcg
DATA              36  idm_steady_no_swi_allwells_priorcalib.bynd
DATA              35  idm_steady_no_swi_allwells_priorcalib.0035.mnwobs
DATA(BINARY)      51  idm_steady_no_swi_allwells_priorcalib.hds REPLACE
